8qw7_X53.pdb
  PyMOL3.0          3D                             0

 55 57  0  0  1  0  0  0  0  0999 V2000
   24.9653   37.3143   25.8154 H   0  0  0  0  0  0  0  0  0  0  0  0
   25.1190   36.3480   25.3350 C   0  0  2  0  0  0  0  0  0  0  0  0
   24.6110   35.2930   26.3420 C   0  0  0  0  0  0  0  0  0  0  0  0
   26.6100   36.1560   25.0010 C   0  0  0  0  0  0  0  0  0  0  0  0
   26.9060   34.6720   24.8580 C   0  0  0  0  0  0  0  0  0  0  0  0
   27.5330   36.6840   26.0900 C   0  0  0  0  0  0  0  0  0  0  0  0
   23.8340   34.3240   25.8660 N   0  0  0  0  0  0  0  0  0  0  0  0
   24.9010   35.3540   27.5270 O   0  0  0  0  0  0  0  0  0  0  0  0
   23.2340   33.3100   26.7810 C   0  0  1  0  0  0  0  0  0  0  0  0
   22.4070   32.4130   25.8900 C   0  0  0  0  0  0  0  0  0  0  0  0
   22.1080   33.2370   24.6760 C   0  0  2  0  0  0  0  0  0  0  0  0
   23.3410   34.0760   24.5110 C   0  0  0  0  0  0  0  0  0  0  0  0
   24.1390   32.4740   27.4080 C   0  0  0  0  0  0  0  0  0  0  0  0
   20.9990   34.0900   24.9460 O   0  0  0  0  0  0  0  0  0  0  0  0
   23.6360   31.8850   28.4840 N   0  0  0  0  0  0  0  0  0  0  0  0
   25.2430   32.2480   26.9380 O   0  0  0  0  0  0  0  0  0  0  0  0
   24.3680   30.9060   29.2880 C   0  0  0  0  0  0  0  0  0  0  0  0
   23.9570   29.6060   29.0070 C   0  0  0  0  0  0  0  0  0  0  0  0
   22.7220   29.3090   28.4480 C   0  0  0  0  0  0  0  0  0  0  0  0
   22.3680   27.9920   28.2010 C   0  0  0  0  0  0  0  0  0  0  0  0
   23.2300   26.9560   28.4990 C   0  0  0  0  0  0  0  0  0  0  0  0
   24.4560   27.2530   29.0560 C   0  0  0  0  0  0  0  0  0  0  0  0
   24.8130   28.5660   29.3110 C   0  0  0  0  0  0  0  0  0  0  0  0
   22.8690   25.6970   28.2650 C   0  0  0  0  0  0  0  0  0  0  0  0
   22.8880   24.7150   29.1600 C   0  0  0  0  0  0  0  0  0  0  0  0
   22.4680   23.5360   28.6970 N   0  0  0  0  0  0  0  0  0  0  0  0
   22.1040   23.5710   27.4180 C   0  0  0  0  0  0  0  0  0  0  0  0
   22.3130   25.0920   26.8900 S   0  0  0  0  0  0  0  0  0  0  0  0
   23.3490   24.8860   30.5980 C   0  0  0  0  0  0  0  0  0  0  0  0
   24.5770   36.2910   24.4040 H   0  0  0  0  0  0  0  0  0  0  0  0
   26.8340   36.6600   24.0650 H   0  0  0  0  0  0  0  0  0  0  0  0
   26.9790   34.2210   25.8480 H   0  0  0  0  0  0  0  0  0  0  0  0
   27.2050   36.3180   27.0580 H   0  0  0  0  0  0  0  0  0  0  0  0
   22.5970   33.8040   27.5100 H   0  0  0  0  0  0  0  0  0  0  0  0
   21.4890   32.1290   26.3990 H   0  0  0  0  0  0  0  0  0  0  0  0
   21.9510   32.6040   23.8070 H   0  0  0  0  0  0  0  0  0  0  0  0
   24.0870   33.5380   23.9330 H   0  0  0  0  0  0  0  0  0  0  0  0
   21.3130   34.8960   25.4450 H   0  0  0  0  0  0  0  0  0  0  0  0
   22.7110   32.0790   28.8080 H   0  0  0  0  0  0  0  0  0  0  0  0
   24.1900   31.1070   30.3410 H   0  0  0  0  0  0  0  0  0  0  0  0
   22.0150   30.0980   28.1990 H   0  0  0  0  0  0  0  0  0  0  0  0
   21.3970   27.7720   27.7640 H   0  0  0  0  0  0  0  0  0  0  0  0
   25.1480   26.4520   29.3030 H   0  0  0  0  0  0  0  0  0  0  0  0
   25.7850   28.7850   29.7480 H   0  0  0  0  0  0  0  0  0  0  0  0
   21.7310   22.7320   26.8320 H   0  0  0  0  0  0  0  0  0  0  0  0
   23.0000   25.8440   30.9820 H   0  0  0  0  0  0  0  0  0  0  0  0
   27.8500   34.5470   24.3330 H   0  0  0  0  0  0  0  0  0  0  0  0
   26.1080   34.1980   24.2950 H   0  0  0  0  0  0  0  0  0  0  0  0
   27.5470   37.7720   26.0760 H   0  0  0  0  0  0  0  0  0  0  0  0
   28.5360   36.3110   25.8950 H   0  0  0  0  0  0  0  0  0  0  0  0
   22.9820   31.5300   25.6210 H   0  0  0  0  0  0  0  0  0  0  0  0
   23.0660   35.0010   24.0160 H   0  0  0  0  0  0  0  0  0  0  0  0
   25.4340   30.9890   29.0870 H   0  0  0  0  0  0  0  0  0  0  0  0
   24.4360   24.8520   30.6350 H   0  0  0  0  0  0  0  0  0  0  0  0
   22.9380   24.0800   31.2030 H   0  0  0  0  0  0  0  0  0  0  0  0
  1  2  1  0  0  0  0
  2  3  1  0  0  0  0
  2  4  1  0  0  0  0
  2 30  1  0  0  0  0
  3  7  1  0  0  0  0
  3  8  2  0  0  0  0
  4  5  1  0  0  0  0
  4  6  1  0  0  0  0
  4 31  1  0  0  0  0
  5 32  1  0  0  0  0
  5 47  1  0  0  0  0
  5 48  1  0  0  0  0
  6 33  1  0  0  0  0
  6 49  1  0  0  0  0
  6 50  1  0  0  0  0
  7  9  1  0  0  0  0
  7 12  1  0  0  0  0
  9 10  1  0  0  0  0
  9 13  1  0  0  0  0
  9 34  1  0  0  0  0
 10 11  1  0  0  0  0
 10 35  1  0  0  0  0
 10 51  1  0  0  0  0
 11 12  1  0  0  0  0
 11 14  1  0  0  0  0
 11 36  1  0  0  0  0
 12 37  1  0  0  0  0
 12 52  1  0  0  0  0
 13 15  1  0  0  0  0
 13 16  2  0  0  0  0
 14 38  1  0  0  0  0
 15 17  1  0  0  0  0
 15 39  1  0  0  0  0
 17 18  1  0  0  0  0
 17 40  1  0  0  0  0
 17 53  1  0  0  0  0
 18 19  2  0  0  0  0
 18 23  1  0  0  0  0
 19 20  1  0  0  0  0
 19 41  1  0  0  0  0
 20 21  2  0  0  0  0
 20 42  1  0  0  0  0
 21 22  1  0  0  0  0
 21 24  1  0  0  0  0
 22 23  2  0  0  0  0
 22 43  1  0  0  0  0
 23 44  1  0  0  0  0
 24 25  2  0  0  0  0
 24 28  1  0  0  0  0
 25 26  1  0  0  0  0
 25 29  1  0  0  0  0
 26 27  2  0  0  0  0
 27 28  1  0  0  0  0
 27 45  1  0  0  0  0
 29 46  1  0  0  0  0
 29 54  1  0  0  0  0
 29 55  1  0  0  0  0
M  END
$$$$
